Circuit: * C:\Users\liamp\OneDrive - Queensland University of Technology\Uni\Year 3\Semester 1 Cloud\EGB240\Assessment 2\Simulation\Filter\LMC6484_Lowpass_Toleranced(1).asc

Direct Newton iteration failed to find .op point.  (Use ".option noopiter" to skip.)
Starting Gmin stepping
Gmin = 10
Gmin = 1.07374
Gmin = 0.115292
Gmin = 0.0123794
Gmin = 0.00132923
Gmin = 0.000142725
Gmin = 1.5325e-005
vernier = 0.5
Gmin = 3.52689e-006
vernier = 0.666667
vernier = 0.888888
Gmin = 7.39785e-007
vernier = 1
Gmin = 8.6905e-008
Gmin = 9.33136e-009
Gmin = 1.00195e-009
Gmin = 1.07583e-010
Gmin = 1.15517e-011
Gmin = 1.24035e-012
Gmin = 1.33182e-013
Gmin = 0
Gmin stepping succeeded in finding the operating point.

.step run=1
.step run=2
.step run=3
.step run=4
.step run=5
.step run=6
.step run=7
.step run=8
.step run=9
.step run=10
.step run=11
.step run=12
.step run=13
.step run=14
.step run=15
.step run=16
.step run=17
.step run=18
.step run=19
.step run=20
.step run=21
.step run=22
.step run=23
.step run=24
.step run=25
.step run=26
.step run=27
.step run=28
.step run=29
.step run=30
.step run=31
.step run=32
.step run=33
.step run=34
.step run=35
.step run=36
.step run=37
.step run=38
.step run=39
.step run=40
.step run=41
.step run=42
.step run=43
.step run=44
.step run=45
.step run=46
.step run=47
.step run=48
.step run=49
.step run=50
.step run=51
.step run=52
.step run=53
.step run=54
.step run=55
.step run=56
.step run=57
.step run=58
.step run=59
.step run=60
.step run=61
.step run=62
.step run=63
.step run=64
.step run=65
.step run=66
.step run=67
.step run=68
.step run=69
.step run=70
.step run=71
.step run=72
.step run=73
.step run=74
.step run=75
.step run=76
.step run=77
.step run=78
.step run=79
.step run=80
.step run=81
.step run=82
.step run=83
.step run=84
.step run=85
.step run=86
.step run=87
.step run=88
.step run=89
.step run=90
.step run=91
.step run=92
.step run=93
.step run=94
.step run=95
.step run=96
.step run=97
.step run=98
.step run=99
.step run=100


Measurement: rp
  step	PP(mag(v(out2)))	FROM	TO
     1	(2.36948dB,0°)	100	2780
     2	(1.51336dB,0°)	100	2780
     3	(2.72215dB,0°)	100	2780
     4	(2.09375dB,0°)	100	2780
     5	(1.86808dB,0°)	100	2780
     6	(2.44476dB,0°)	100	2780
     7	(1.77768dB,0°)	100	2780
     8	(1.63475dB,0°)	100	2780
     9	(1.61447dB,0°)	100	2780
    10	(2.19985dB,0°)	100	2780
    11	(2.47982dB,0°)	100	2780
    12	(1.5821dB,0°)	100	2780
    13	(2.76911dB,0°)	100	2780
    14	(1.71277dB,0°)	100	2780
    15	(3.03584dB,0°)	100	2780
    16	(3.22468dB,0°)	100	2780
    17	(3.41202dB,0°)	100	2780
    18	(1.46028dB,0°)	100	2780
    19	(1.97634dB,0°)	100	2780
    20	(1.89174dB,0°)	100	2780
    21	(1.61511dB,0°)	100	2780
    22	(2.88006dB,0°)	100	2780
    23	(1.54967dB,0°)	100	2780
    24	(1.85928dB,0°)	100	2780
    25	(1.91317dB,0°)	100	2780
    26	(1.71024dB,0°)	100	2780
    27	(2.55975dB,0°)	100	2780
    28	(2.99778dB,0°)	100	2780
    29	(2.19032dB,0°)	100	2780
    30	(2.20144dB,0°)	100	2780
    31	(2.31277dB,0°)	100	2780
    32	(2.44268dB,0°)	100	2780
    33	(1.66219dB,0°)	100	2780
    34	(2.06233dB,0°)	100	2780
    35	(2.52742dB,0°)	100	2780
    36	(2.71401dB,0°)	100	2780
    37	(1.88292dB,0°)	100	2780
    38	(1.97341dB,0°)	100	2780
    39	(2.81457dB,0°)	100	2780
    40	(1.84807dB,0°)	100	2780
    41	(2.47732dB,0°)	100	2780
    42	(1.74338dB,0°)	100	2780
    43	(2.31349dB,0°)	100	2780
    44	(2.79979dB,0°)	100	2780
    45	(2.35798dB,0°)	100	2780
    46	(2.81617dB,0°)	100	2780
    47	(1.78322dB,0°)	100	2780
    48	(1.66117dB,0°)	100	2780
    49	(3.51409dB,0°)	100	2780
    50	(2.64012dB,0°)	100	2780
    51	(2.8551dB,0°)	100	2780
    52	(3.12782dB,0°)	100	2780
    53	(2.19204dB,0°)	100	2780
    54	(2.60488dB,0°)	100	2780
    55	(1.65533dB,0°)	100	2780
    56	(2.29544dB,0°)	100	2780
    57	(2.35345dB,0°)	100	2780
    58	(1.68132dB,0°)	100	2780
    59	(2.0025dB,0°)	100	2780
    60	(1.84162dB,0°)	100	2780
    61	(1.63155dB,0°)	100	2780
    62	(2.5048dB,0°)	100	2780
    63	(2.72804dB,0°)	100	2780
    64	(1.80413dB,0°)	100	2780
    65	(1.57905dB,0°)	100	2780
    66	(2.97202dB,0°)	100	2780
    67	(1.73478dB,0°)	100	2780
    68	(2.62419dB,0°)	100	2780
    69	(2.36267dB,0°)	100	2780
    70	(1.67202dB,0°)	100	2780
    71	(1.7905dB,0°)	100	2780
    72	(1.52825dB,0°)	100	2780
    73	(2.06242dB,0°)	100	2780
    74	(3.17477dB,0°)	100	2780
    75	(1.63338dB,0°)	100	2780
    76	(2.20033dB,0°)	100	2780
    77	(1.87842dB,0°)	100	2780
    78	(1.53376dB,0°)	100	2780
    79	(1.9638dB,0°)	100	2780
    80	(2.24083dB,0°)	100	2780
    81	(1.71617dB,0°)	100	2780
    82	(1.67804dB,0°)	100	2780
    83	(1.94296dB,0°)	100	2780
    84	(1.73571dB,0°)	100	2780
    85	(2.04713dB,0°)	100	2780
    86	(1.60336dB,0°)	100	2780
    87	(1.92739dB,0°)	100	2780
    88	(1.48796dB,0°)	100	2780
    89	(2.80463dB,0°)	100	2780
    90	(2.5989dB,0°)	100	2780
    91	(3.35995dB,0°)	100	2780
    92	(2.24127dB,0°)	100	2780
    93	(2.10341dB,0°)	100	2780
    94	(1.81597dB,0°)	100	2780
    95	(3.14804dB,0°)	100	2780
    96	(2.33522dB,0°)	100	2780
    97	(2.24549dB,0°)	100	2780
    98	(3.49437dB,0°)	100	2780
    99	(1.97875dB,0°)	100	2780
   100	(2.05429dB,0°)	100	2780

Measurement: amin
  step	PP(mag(v(out2)))	FROM	TO
     1	(49.6149dB,0°)	100	7813
     2	(48.7833dB,0°)	100	7813
     3	(49.6206dB,0°)	100	7813
     4	(48.8332dB,0°)	100	7813
     5	(49.1556dB,0°)	100	7813
     6	(49.3323dB,0°)	100	7813
     7	(48.9517dB,0°)	100	7813
     8	(49.0242dB,0°)	100	7813
     9	(48.4388dB,0°)	100	7813
    10	(49.025dB,0°)	100	7813
    11	(49.5368dB,0°)	100	7813
    12	(48.9119dB,0°)	100	7813
    13	(49.9235dB,0°)	100	7813
    14	(48.6922dB,0°)	100	7813
    15	(49.7239dB,0°)	100	7813
    16	(49.9414dB,0°)	100	7813
    17	(49.9299dB,0°)	100	7813
    18	(47.3559dB,0°)	100	7813
    19	(49.4191dB,0°)	100	7813
    20	(49.2121dB,0°)	100	7813
    21	(48.821dB,0°)	100	7813
    22	(49.7965dB,0°)	100	7813
    23	(47.8089dB,0°)	100	7813
    24	(48.6537dB,0°)	100	7813
    25	(49.3051dB,0°)	100	7813
    26	(48.7391dB,0°)	100	7813
    27	(49.4392dB,0°)	100	7813
    28	(49.9068dB,0°)	100	7813
    29	(48.8051dB,0°)	100	7813
    30	(48.9041dB,0°)	100	7813
    31	(49.1034dB,0°)	100	7813
    32	(49.2996dB,0°)	100	7813
    33	(48.6412dB,0°)	100	7813
    34	(49.0217dB,0°)	100	7813
    35	(49.352dB,0°)	100	7813
    36	(49.8238dB,0°)	100	7813
    37	(48.9058dB,0°)	100	7813
    38	(48.7695dB,0°)	100	7813
    39	(49.6597dB,0°)	100	7813
    40	(48.9234dB,0°)	100	7813
    41	(49.4293dB,0°)	100	7813
    42	(48.83dB,0°)	100	7813
    43	(48.6672dB,0°)	100	7813
    44	(49.7122dB,0°)	100	7813
    45	(49.2158dB,0°)	100	7813
    46	(49.6408dB,0°)	100	7813
    47	(48.7306dB,0°)	100	7813
    48	(48.4096dB,0°)	100	7813
    49	(50.0187dB,0°)	100	7813
    50	(49.3014dB,0°)	100	7813
    51	(49.4919dB,0°)	100	7813
    52	(49.8381dB,0°)	100	7813
    53	(49.3266dB,0°)	100	7813
    54	(49.5189dB,0°)	100	7813
    55	(48.7715dB,0°)	100	7813
    56	(49.2157dB,0°)	100	7813
    57	(49.0119dB,0°)	100	7813
    58	(48.9674dB,0°)	100	7813
    59	(48.4279dB,0°)	100	7813
    60	(48.7638dB,0°)	100	7813
    61	(48.0427dB,0°)	100	7813
    62	(49.7117dB,0°)	100	7813
    63	(49.6851dB,0°)	100	7813
    64	(48.4612dB,0°)	100	7813
    65	(48.9215dB,0°)	100	7813
    66	(50.0098dB,0°)	100	7813
    67	(49.0242dB,0°)	100	7813
    68	(49.369dB,0°)	100	7813
    69	(49.1309dB,0°)	100	7813
    70	(48.3622dB,0°)	100	7813
    71	(48.9948dB,0°)	100	7813
    72	(48.2946dB,0°)	100	7813
    73	(48.841dB,0°)	100	7813
    74	(49.8497dB,0°)	100	7813
    75	(48.7831dB,0°)	100	7813
    76	(48.8992dB,0°)	100	7813
    77	(48.8712dB,0°)	100	7813
    78	(48.0565dB,0°)	100	7813
    79	(48.6887dB,0°)	100	7813
    80	(48.649dB,0°)	100	7813
    81	(48.6959dB,0°)	100	7813
    82	(48.5858dB,0°)	100	7813
    83	(48.9631dB,0°)	100	7813
    84	(48.7729dB,0°)	100	7813
    85	(49.3086dB,0°)	100	7813
    86	(48.1406dB,0°)	100	7813
    87	(48.442dB,0°)	100	7813
    88	(48.3465dB,0°)	100	7813
    89	(49.5627dB,0°)	100	7813
    90	(49.3124dB,0°)	100	7813
    91	(50.0219dB,0°)	100	7813
    92	(48.9977dB,0°)	100	7813
    93	(48.6163dB,0°)	100	7813
    94	(49.0666dB,0°)	100	7813
    95	(49.998dB,0°)	100	7813
    96	(49.2121dB,0°)	100	7813
    97	(48.8797dB,0°)	100	7813
    98	(50.2127dB,0°)	100	7813
    99	(49.2215dB,0°)	100	7813
   100	(49.0682dB,0°)	100	7813


Date: Thu May 30 23:50:44 2019
Total elapsed time: 10.852 seconds.

tnom = 27
temp = 27
method = trap
totiter = 4606
traniter = 0
tranpoints = 0
accept = 0
rejected = 0
matrix size = 72
fillins = 272
solver = Normal
Matrix Compiler1:    1547 opcodes
Matrix Compiler2: 10.81 KB object code size  0.8/1.2/[0.6]

