Circuit: * C:\Users\liamp\OneDrive - Queensland University of Technology\Uni\Year 3\Semester 1 Cloud\EGB240\Assessment 2\Simulation\Final\Final.asc

Fatal Error: Tran: Missing node(s).
